8
-180
C       0.4886814821   0.5793880408   0.0000058521
H       0.3758213275   1.1898348834   0.8807876023
H       0.3758151677   1.1898674634  -0.8807524001
C      -0.4886789378  -0.5793802915  -0.0000061062
H      -0.3758152275  -1.1898562562   0.8807551393
H      -0.3758158409  -1.1898406513  -0.8807782628
CL     -2.1643437325   0.0549871412   0.0000006879
CL      2.1643427030  -0.0549899572  -0.0000009488
