8
90
C        0.6541097259  -0.3867770672   0.8187641824
H        0.5034200202  -1.4275338927   0.5859462331
H        1.1188890891  -0.3036716030   1.7897259558
C       -0.6544136708   0.3874186397   0.8190172837
H       -0.5046939868   1.4284190641   0.5867203257
H       -1.1188254798   0.3023820900   1.7899797638
CL      -1.8390952415  -0.2695223977  -0.3494456463
CL       1.8392344273   0.2693138875  -0.3495460902
