8
-90
C        0.5952077853   0.4728295968   0.8189112527
H        1.0670108606   0.4529169890   1.7898416525
H        0.3047882171   1.4835000005   0.5863504938
C       -0.5952438000  -0.4725826397   0.8188750201
H       -1.0669883214  -0.4527264361   1.7898453400
H       -0.3043531100  -1.4832433876   0.5867420420
CL      -1.8589617507   0.0156589202  -0.3494936002
CL       1.8589609199  -0.0157565542  -0.3495115230
