8
-60
C       0.6593022847   0.3741948061   0.9928612267
H       1.2202421808   0.0934046526   1.8723038962
H       0.4983155356   1.4406099545   0.9997906065
C      -0.6591639641  -0.3740757696   0.9931357059
H      -1.2200235156  -0.0925361073   1.8724035777
H      -0.4994912685  -1.4406700842   1.0001199870
CL     -1.6825287196  -0.0145432386  -0.4235636852
CL      1.6825088365   0.0144790906  -0.4235197303
