8
0
C      0.7718380593   0.0531778643   1.1067990643
H      1.1882155917  -0.7942201933   1.6270786609
H      1.0677823489   0.9502674048   1.6262665060
C     -0.7718001514  -0.0530714932   1.1066401939
H     -1.1880045461   0.7948140993   1.6263406896
H     -1.0682624741  -0.9493881388   1.6272294360
CL    -1.5903986272  -0.1095071839  -0.4735241445
CL     1.5903933737   0.1094282236  -0.4735788630
