60
C601
C -0.3761424022  -3.2853708524   1.1576472789
C  0.3761424022   3.2853708524  -1.1576472789
C -0.3761424022  -3.2853708524  -1.1576472789
C  0.3761424022   3.2853708524   1.1576472789
C  0.9847535936  -3.2853708524   0.7154653653
C -0.9847535936   3.2853708524  -0.7154653653
C  0.9847535936  -3.2853708524  -0.7154653653
C -0.9847535936   3.2853708524   0.7154653653
C -1.2172223827  -3.2853708524   0.0000000000
C  1.2172223827   3.2853708524   0.0000000000
C  1.9369214867  -2.5579793081   1.4072558335
C -1.9369214867   2.5579793081  -1.4072558335
C  1.9369214867  -2.5579793081  -1.4072558335
C -1.9369214867   2.5579793081   1.4072558335
C  1.5607790845  -1.8056945037   2.5649031123
C -1.5607790845   1.8056945037  -2.5649031123
C  1.5607790845  -1.8056945037  -2.5649031123
C -1.5607790845   1.8056945037   2.5649031123
C  2.3130638889  -0.5884721209   2.5649031123
C -2.3130638889   0.5884721209  -2.5649031123
C  2.3130638889  -0.5884721209  -2.5649031123
C -2.3130638889   0.5884721209   2.5649031123
C  2.9216750802  -1.8056945037   0.6917904682
C -2.9216750802   1.8056945037  -0.6917904682
C  2.9216750802  -1.8056945037  -0.6917904682
C -2.9216750802   1.8056945037   0.6917904682
C  3.1541438694  -0.5884721209   1.4072558335
C -3.1541438694   0.5884721209  -1.4072558335
C  3.1541438694  -0.5884721209  -1.4072558335
C -3.1541438694   0.5884721209   1.4072558335
C -0.7398381744  -2.5579793081  -2.2769877694
C  0.7398381744   2.5579793081   2.2769877694
C -0.7398381744  -2.5579793081   2.2769877694
C  0.7398381744   2.5579793081  -2.2769877694
C  0.2449154192  -1.8056945037  -2.9924531348
C -0.2449154192   1.8056945037   2.9924531348
C  0.2449154192  -1.8056945037   2.9924531348
C -0.2449154192   1.8056945037  -2.9924531348
C -0.3636957722  -0.5884721209  -3.4346350483
C  0.3636957722   0.5884721209   3.4346350483
C -0.3636957722  -0.5884721209   3.4346350483
C  0.3636957722   0.5884721209  -3.4346350483
C -1.9570605571  -1.8056945037  -2.2769877694
C  1.9570605571   1.8056945037   2.2769877694
C -1.9570605571  -1.8056945037   2.2769877694
C  1.9570605571   1.8056945037  -2.2769877694
C -1.7245917679  -0.5884721209  -2.9924531348
C  1.7245917679   0.5884721209   2.9924531348
C -1.7245917679  -0.5884721209   2.9924531348
C  1.7245917679   0.5884721209  -2.9924531348
C -2.3941666246  -2.5579793081   0.0000000000
C  2.3941666246   2.5579793081   0.0000000000
C -2.7703090268  -1.8056945037  -1.1576472789
C  2.7703090268   1.8056945037   1.1576472789
C -2.7703090268  -1.8056945037   1.1576472789
C  2.7703090268   1.8056945037  -1.1576472789
C -3.3789202182  -0.5884721209  -0.7154653653
C  3.3789202182   0.5884721209   0.7154653653
C -3.3789202182  -0.5884721209   0.7154653653
C  3.3789202182   0.5884721209  -0.7154653653
