60
C602
C  -0.3802907317  -3.3008573527   1.1704145219
C   0.3802907317   3.3008573527  -1.1704145219
C  -0.3802907317  -3.3008573527  -1.1704145219
C   0.3802907317   3.3008573527   1.1704145219
C   0.9956140594  -3.3008573531   0.7233559562
C  -0.9956140594   3.3008573531  -0.7233559562
C   0.9956140594  -3.3008573531  -0.7233559562
C  -0.9956140594   3.3008573531   0.7233559562
C  -1.2306466564  -3.3008573524   0.0000000000
C   1.2306466564   3.3008573524   0.0000000000
C   1.9432706757  -2.5769121169   1.4118687891
C  -1.9432706757   2.5769121169  -1.4118687891
C   1.9432706757  -2.5769121169  -1.4118687891
C  -1.9432706757   2.5769121169   1.4118687891
C   1.5629799464  -1.8163306566   2.5822833129
C  -1.5629799464   1.8163306566  -2.5822833129
C   1.5629799464  -1.8163306566  -2.5822833129
C  -1.5629799464   1.8163306566   2.5822833129
C   2.3235614068  -0.5856839990   2.5822833120
C  -2.3235614068   0.5856839990  -2.5822833120
C   2.3235614068  -0.5856839990  -2.5822833120
C  -2.3235614068   0.5856839990   2.5822833120
C   2.9388847359  -1.8163306563   0.6885128347
C  -2.9388847359   1.8163306563  -0.6885128347
C   2.9388847359  -1.8163306563  -0.6885128347
C  -2.9388847359   1.8163306563   0.6885128347
C   3.1739173318  -0.5856839989   1.4118687889
C  -3.1739173318   0.5856839989  -1.4118687889
C   3.1739173318  -0.5856839989  -1.4118687889
C  -3.1739173318   0.5856839989   1.4118687889
C  -0.7422633487  -2.5769121175  -2.2844516896
C   0.7422633487   2.5769121175   2.2844516896
C  -0.7422633487  -2.5769121175   2.2844516896
C   0.7422633487   2.5769121175  -2.2844516896
C   0.2533507102  -1.8163306560  -3.0078076443
C  -0.2533507102   1.8163306560   3.0078076443
C   0.2533507102  -1.8163306560   3.0078076443
C  -0.2533507102   1.8163306560  -3.0078076443
C  -0.3619726172  -0.5856839989  -3.4548662097
C   0.3619726172   0.5856839989   3.4548662097
C  -0.3619726172  -0.5856839989   3.4548662097
C   0.3619726172   0.5856839989  -3.4548662097
C  -1.9729100063  -1.8163306565  -2.2844516902
C   1.9729100063   1.8163306565   2.2844516902
C  -1.9729100063  -1.8163306565   2.2844516902
C   1.9729100063   1.8163306565  -2.2844516902
C  -1.7378774090  -0.5856839991  -3.0078076446
C   1.7378774090   0.5856839991   3.0078076446
C  -1.7378774090  -0.5856839991   3.0078076446
C   1.7378774090   0.5856839991  -3.0078076446
C  -2.4020146552  -2.5769121178   0.0000000000
C   2.4020146552   2.5769121178   0.0000000000
C  -2.7823053850  -1.8163306562  -1.1704145222
C   2.7823053850   1.8163306562   1.1704145222
C  -2.7823053850  -1.8163306562   1.1704145222
C   2.7823053850   1.8163306562  -1.1704145222
C  -3.3976287126  -0.5856839990  -0.7233559562
C   3.3976287126   0.5856839990   0.7233559562
C  -3.3976287126  -0.5856839990   0.7233559562
C   3.3976287126   0.5856839990  -0.7233559562
