60
C603
C  -0.3843884443  -3.3279672674   1.1830259822
C   0.3843884443   3.3279672674  -1.1830259822
C  -0.3843884443  -3.3279672674  -1.1830259822
C   0.3843884443   3.3279672674   1.1830259822
C   1.0063420078  -3.3279672665   0.7311502675
C  -1.0063420078   3.3279672665  -0.7311502675
C   1.0063420078  -3.3279672665  -0.7311502675
C  -1.0063420078   3.3279672665   0.7311502675
C  -1.2439071313  -3.3279672681   0.0000000000
C   1.2439071313   3.3279672681   0.0000000000
C   1.9580899134  -2.6008965722   1.4226355959
C  -1.9580899134   2.6008965722  -1.4226355959
C   1.9580899134  -2.6008965722  -1.4226355959
C  -1.9580899134   2.6008965722   1.4226355959
C   1.5737014703  -1.8321196860   2.6056615789
C  -1.5737014703   1.8321196860  -2.6056615789
C   1.5737014703  -1.8321196860  -2.6056615789
C  -1.5737014703   1.8321196860   2.6056615789
C   2.3424783541  -0.5882125535   2.6056615782
C  -2.3424783541   0.5882125535  -2.6056615782
C   2.3424783541  -0.5882125535  -2.6056615782
C  -2.3424783541   0.5882125535   2.6056615782
C   2.9644319190  -1.8321196847   0.6914853279
C  -2.9644319190   1.8321196847  -0.6914853279
C   2.9644319190  -1.8321196847  -0.6914853279
C  -2.9644319190   1.8321196847   0.6914853279
C   3.2019970401  -0.5882125530   1.4226355933
C  -3.2019970401   0.5882125530  -1.4226355933
C   3.2019970401  -0.5882125530  -1.4226355933
C  -3.2019970401   0.5882125530   1.4226355933
C  -0.7479237942  -2.6008965718  -2.3018727474
C   0.7479237942   2.6008965718   2.3018727474
C  -0.7479237942  -2.6008965718   2.3018727474
C   0.7479237942   2.6008965718  -2.3018727474
C   0.2584182154  -1.8321196856  -3.0330230102
C  -0.2584182154   1.8321196856   3.0330230102
C   0.2584182154  -1.8321196856   3.0330230102
C  -0.2584182154   1.8321196856  -3.0330230102
C  -0.3635353490  -0.5882125527  -3.4848987206
C   0.3635353490   0.5882125527   3.4848987206
C  -0.3635353490  -0.5882125527   3.4848987206
C   0.3635353490   0.5882125527  -3.4848987206
C  -1.9918309269  -1.8321196874  -2.3018727477
C   1.9918309269   1.8321196874   2.3018727477
C  -1.9918309269  -1.8321196874   2.3018727477
C   1.9918309269   1.8321196874  -2.3018727477
C  -1.7542658031  -0.5882125536  -3.0330230098
C   1.7542658031   0.5882125536   3.0330230098
C  -1.7542658031  -0.5882125536   3.0330230098
C   1.7542658031   0.5882125536  -3.0330230098
C  -2.4203322393  -2.6008965719   0.0000000000
C   2.4203322393   2.6008965719   0.0000000000
C  -2.8047206804  -1.8321196873  -1.1830259837
C   2.8047206804   1.8321196873   1.1830259837
C  -2.8047206804  -1.8321196873   1.1830259837
C   2.8047206804   1.8321196873  -1.1830259837
C  -3.4266742387  -0.5882125531  -0.7311502675
C   3.4266742387   0.5882125531   0.7311502675
C  -3.4266742387  -0.5882125531   0.7311502675
C   3.4266742387   0.5882125531  -0.7311502675
