12
Benzene2
C  0.0000000000  -1.3867946418   0.0000000000
C  1.2009993896  -0.6933973209   0.0000000000
C  1.2009993896   0.6933973209   0.0000000000
C -0.0000000000   1.3867946418   0.0000000000
C -1.2009993896   0.6933973209   0.0000000000
C -1.2009993896  -0.6933973209   0.0000000000
H -0.0000000000  -2.4622186330   0.0000000000
H  2.1323438859  -1.2311093165   0.0000000000
H  2.1323438859   1.2311093165   0.0000000000
H  0.0000000000   2.4622186330   0.0000000000
H -2.1323438859   1.2311093165   0.0000000000
H -2.1323438859  -1.2311093165   0.0000000000
