12
Benzene3
C   0.0000000000  -1.3862074424   0.0000000000
C   1.2004908600  -0.6931037212   0.0000000000
C   1.2004908600   0.6931037212   0.0000000000
C  -0.0000000000   1.3862074424   0.0000000000
C  -1.2004908600   0.6931037212   0.0000000000
C  -1.2004908600  -0.6931037212   0.0000000000
H  -0.0000000000  -2.4617563563   0.0000000000
H   2.1319435425  -1.2308781781   0.0000000000
H   2.1319435425   1.2308781781   0.0000000000
H   0.0000000000   2.4617563563   0.0000000000
H  -2.1319435425   1.2308781781   0.0000000000
H  -2.1319435425  -1.2308781781   0.0000000000
